Version 4.1
SHEET 1 1272 680
WIRE -272 -160 -400 -160
WIRE -144 -160 -176 -160
WIRE -96 -160 -96 -192
WIRE -96 -160 -144 -160
WIRE -48 -160 -96 -160
WIRE 32 -160 -48 -160
WIRE 240 -160 128 -160
WIRE -48 -144 -48 -160
WIRE -144 -128 -144 -160
WIRE 240 -96 240 -160
WIRE -192 -48 -192 -112
WIRE -144 -48 -144 -64
WIRE -144 -48 -192 -48
WIRE -48 -48 -48 -64
WIRE -48 -48 -144 -48
WIRE 48 -48 48 -112
WIRE 48 -48 -48 -48
WIRE 96 -48 48 -48
WIRE -400 -32 -400 -160
WIRE -48 -16 -48 -48
WIRE -400 64 -400 48
WIRE -48 96 -48 64
WIRE 240 96 240 -32
WIRE 240 96 -48 96
WIRE 240 144 240 96
FLAG 240 144 0
FLAG -400 64 0
FLAG 1088 112 0
FLAG 1088 16 0
FLAG 1040 32 0
FLAG -400 -160 VIN
FLAG 240 -160 VOUT
FLAG -96 -192 Source
FLAG 96 -48 Gate
SYMBOL cap 224 -96 R0
SYMATTR Value 8000”
SYMATTR InstName C1
SYMATTR SpiceLine V=63 Irms=50 Rser=0.002 Lser=0
SYMBOL pmos 128 -112 M270
SYMATTR InstName M2
SYMATTR Value Si7465DP
SYMBOL voltage -400 -48 R0
WINDOW 123 0 0 Left 0
WINDOW 39 24 124 Left 2
SYMATTR InstName V1
SYMATTR Value 51
SYMATTR SpiceLine Rser=0.01
SYMBOL res -64 -160 R0
SYMATTR InstName R1
SYMATTR Value 120k
SYMBOL cap -160 -128 R0
SYMATTR InstName C2
SYMATTR Value 10”
SYMBOL res -64 -32 R0
SYMATTR InstName R2
SYMATTR Value 1000k
SYMBOL pmos -272 -112 R270
SYMATTR InstName M1
SYMATTR Value Si7465DP
TEXT -416 136 Left 2 !.tran 0 1 0 100u startup
TEXT 912 -104 Left 2 ;SPD15P10PL
